<?xml version="1.0" encoding="UTF-8"?>

<!-- generated on 2023-03-30 00:15:45 by Eclipse SUMO netedit Version 1.16.0
<configuration xmlns:xsi="http://www.w3.org/2001/XMLSchema-instance" xsi:noNamespaceSchemaLocation="http://sumo.dlr.de/xsd/netconvertConfiguration.xsd">

    <input>
        <sumocfg-file value="/home/eigho/TSP/2A/Cassiop/SUMO_DOCS/resultat_article_mexico/test_speed_bump.sumocfg"/>
        <sumo-net-file value="/home/eigho/TSP/2A/Cassiop/SUMO_DOCS/resultat_article_mexico/test_speed_bump.net.xml"/>
    </input>

    <output>
        <output-file value="/home/eigho/TSP/2A/Cassiop/SUMO_DOCS/resultat_article_mexico/test_speed_bump.net.xml"/>
    </output>

    <processing>
        <offset.disable-normalization value="true"/>
    </processing>

    <junctions>
        <no-turnarounds value="true"/>
    </junctions>

    <netedit>
        <new-network value="false"/>
    </netedit>

</configuration>
-->

<net version="1.16" junctionCornerDetail="5" limitTurnSpeed="5.50" xmlns:xsi="http://www.w3.org/2001/XMLSchema-instance" xsi:noNamespaceSchemaLocation="http://sumo.dlr.de/xsd/net_file.xsd">

    <location netOffset="0.00,0.00" convBoundary="0.00,0.00,300.00,0.00" origBoundary="10000000000.00,10000000000.00,-10000000000.00,-10000000000.00" projParameter="!"/>

    <edge id=":J1_0" function="internal">
        <lane id=":J1_0_0" index="0" speed="7.64" length="0.10" shape="150.00,-1.60 150.00,-1.60"/>
    </edge>
    <edge id=":J2_0" function="internal">
        <lane id=":J2_0_0" index="0" speed="7.64" length="0.10" shape="160.00,-1.60 160.00,-1.60"/>
    </edge>

    <edge id="E0" from="beg" to="J1" priority="-1">
        <lane id="E0_0" index="0" speed="13.89" length="150.00" shape="0.00,-1.60 150.00,-1.60"/>
    </edge>
    <edge id="E1" from="J1" to="J2" priority="-1">
        <lane id="E1_0" index="0" speed="1.39" length="10.00" shape="150.00,-1.60 160.00,-1.60"/>
    </edge>
    <edge id="E2" from="J2" to="J3" priority="-1">
        <lane id="E2_0" index="0" speed="13.89" length="140.00" shape="160.00,-1.60 300.00,-1.60"/>
    </edge>

    <junction id="J1" type="priority" x="150.00" y="0.00" incLanes="E0_0" intLanes=":J1_0_0" shape="150.00,0.00 150.00,-3.20 150.00,0.00">
        <request index="0" response="0" foes="0" cont="0"/>
    </junction>
    <junction id="J2" type="priority" x="160.00" y="0.00" incLanes="E1_0" intLanes=":J2_0_0" shape="160.00,0.00 160.00,-3.20 160.00,0.00">
        <request index="0" response="0" foes="0" cont="0"/>
    </junction>
    <junction id="J3" type="dead_end" x="300.00" y="0.00" incLanes="E2_0" intLanes="" shape="300.00,-3.20 300.00,0.00"/>
    <junction id="beg" type="dead_end" x="0.00" y="0.00" incLanes="" intLanes="" shape="0.00,0.00 0.00,-3.20"/>

    <connection from="E0" to="E1" fromLane="0" toLane="0" via=":J1_0_0" dir="s" state="M"/>
    <connection from="E1" to="E2" fromLane="0" toLane="0" via=":J2_0_0" dir="s" state="M"/>

    <connection from=":J1_0" to="E1" fromLane="0" toLane="0" dir="s" state="M"/>
    <connection from=":J2_0" to="E2" fromLane="0" toLane="0" dir="s" state="M"/>

</net>
