<?xml version="1.0" encoding="UTF-8"?>

<!-- generated on 2023-03-06 18:47:22.963715 by osmWebWizard.py UNKNOWN
<configuration>
    <allow-fringe.min-length value="1000.0"/>
    <begin value="0"/>
    <end value="3600"/>
    <fringe-factor value="100"/>
    <fringe-start-attributes value="departSpeed=&quot;max&quot;"/>
    <insertion-density value="100.0"/>
    <lanes value="True"/>
    <min-distance.fringe value="10.0"/>
    <min-distance value="300.0"/>
    <net-file value="/home/eigho/TSP/2A/Cassiop/SUMO_DOCS/tuto/osmWebWizard/2023-03-06-18-47-20/osm.net.xml.gz"/>
    <remove-loops value="True"/>
    <route-file value="/home/eigho/TSP/2A/Cassiop/SUMO_DOCS/tuto/osmWebWizard/2023-03-06-18-47-20/osm.passenger.rou.xml"/>
    <trip-attributes value="departLane=&quot;best&quot;"/>
    <output-trip-file value="/home/eigho/TSP/2A/Cassiop/SUMO_DOCS/tuto/osmWebWizard/2023-03-06-18-47-20/osm.passenger.trips.xml"/>
    <prefix value="veh"/>
    <validate value="True"/>
    <vehicle-class value="passenger"/>
</configuration>
-->

<!-- generated on 2023-03-06 18:47:22 by Eclipse SUMO duarouter Version 1.16.0
<configuration xmlns:xsi="http://www.w3.org/2001/XMLSchema-instance" xsi:noNamespaceSchemaLocation="http://sumo.dlr.de/xsd/duarouterConfiguration.xsd">

    <input>
        <net-file value="/home/eigho/TSP/2A/Cassiop/SUMO_DOCS/tuto/osmWebWizard/2023-03-06-18-47-20/osm.net.xml.gz"/>
        <route-files value="/home/eigho/TSP/2A/Cassiop/SUMO_DOCS/tuto/osmWebWizard/2023-03-06-18-47-20/osm.passenger.trips.xml"/>
    </input>

    <output>
        <output-file value="/home/eigho/TSP/2A/Cassiop/SUMO_DOCS/tuto/osmWebWizard/2023-03-06-18-47-20/osm.passenger.trips.xml.tmp"/>
        <alternatives-output value="NUL"/>
        <write-trips value="true"/>
    </output>

    <processing>
        <remove-loops value="true"/>
    </processing>

    <time>
        <begin value="0"/>
        <end value="3600"/>
    </time>

    <report>
        <no-warnings value="true"/>
        <ignore-errors value="true"/>
        <no-step-log value="true"/>
    </report>

</configuration>
-->

<routes xmlns:xsi="http://www.w3.org/2001/XMLSchema-instance" xsi:noNamespaceSchemaLocation="http://sumo.dlr.de/xsd/routes_file.xsd">
    <vType id="veh_passenger" vClass="passenger"/>
    <trip id="veh0" type="veh_passenger" depart="0.00" departLane="best" departSpeed="max" from="-1079019252" to="-1079019252"/>
    <trip id="veh2" type="veh_passenger" depart="4.03" departLane="best" departSpeed="max" from="548990922" to="548990922"/>
    <trip id="veh4" type="veh_passenger" depart="8.05" departLane="best" departSpeed="max" from="-1079019252" to="-1079019252"/>
    <trip id="veh9" type="veh_passenger" depart="18.12" departLane="best" departSpeed="max" from="-1079019252" to="-1079019252"/>
    <trip id="veh10" type="veh_passenger" depart="20.13" departLane="best" departSpeed="max" from="548990922" to="548990922"/>
    <trip id="veh28" type="veh_passenger" depart="56.37" departLane="best" departSpeed="max" from="-1079019252" to="-1079019252"/>
    <trip id="veh35" type="veh_passenger" depart="70.46" departLane="best" departSpeed="max" from="226955127" to="226955127"/>
    <trip id="veh36" type="veh_passenger" depart="72.48" departLane="best" departSpeed="max" from="226955127" to="226955127"/>
    <trip id="veh48" type="veh_passenger" depart="96.64" departLane="best" departSpeed="max" from="1079019252" to="1079019252"/>
    <trip id="veh49" type="veh_passenger" depart="98.65" departLane="best" departSpeed="max" from="1079019252" to="1079019252"/>
    <trip id="veh58" type="veh_passenger" depart="116.77" departLane="best" departSpeed="max" from="1079019252" to="1079019252"/>
    <trip id="veh64" type="veh_passenger" depart="128.85" departLane="best" departSpeed="max" from="1079019252" to="1079019252"/>
    <trip id="veh74" type="veh_passenger" depart="148.98" departLane="best" departSpeed="max" from="1079019252" to="1079019252"/>
    <trip id="veh77" type="veh_passenger" depart="155.02" departLane="best" departSpeed="max" from="548990922" to="548990922"/>
    <trip id="veh83" type="veh_passenger" depart="167.10" departLane="best" departSpeed="max" from="1079019252" to="1079019252"/>
    <trip id="veh84" type="veh_passenger" depart="169.11" departLane="best" departSpeed="max" from="226955127" to="226955127"/>
    <trip id="veh87" type="veh_passenger" depart="175.15" departLane="best" departSpeed="max" from="1079019252" to="1079019252"/>
    <trip id="veh91" type="veh_passenger" depart="183.21" departLane="best" departSpeed="max" from="1079019252" to="1079019252"/>
    <trip id="veh92" type="veh_passenger" depart="185.22" departLane="best" departSpeed="max" from="226955127" to="226955127"/>
    <trip id="veh95" type="veh_passenger" depart="191.26" departLane="best" departSpeed="max" from="1079019252" to="1079019252"/>
    <trip id="veh108" type="veh_passenger" depart="217.43" departLane="best" departSpeed="max" from="548990922" to="548990922"/>
    <trip id="veh110" type="veh_passenger" depart="221.46" departLane="best" departSpeed="max" from="-1079019252" to="-1079019252"/>
    <trip id="veh115" type="veh_passenger" depart="231.53" departLane="best" from="-26661107" to="-26661107"/>
    <trip id="veh117" type="veh_passenger" depart="235.55" departLane="best" departSpeed="max" from="1079019252" to="1079019252"/>
    <trip id="veh122" type="veh_passenger" depart="245.62" departLane="best" from="-1079019252" to="-1079019252"/>
    <trip id="veh131" type="veh_passenger" depart="263.74" departLane="best" departSpeed="max" from="1079019252" to="1079019252"/>
    <trip id="veh143" type="veh_passenger" depart="287.90" departLane="best" departSpeed="max" from="548990922" to="548990922"/>
    <trip id="veh150" type="veh_passenger" depart="301.99" departLane="best" departSpeed="max" from="548990922" to="548990922"/>
    <trip id="veh155" type="veh_passenger" depart="312.06" departLane="best" departSpeed="max" from="1079019252" to="1079019252"/>
    <trip id="veh156" type="veh_passenger" depart="314.07" departLane="best" departSpeed="max" from="1079019252" to="1079019252"/>
    <trip id="veh159" type="veh_passenger" depart="320.11" departLane="best" departSpeed="max" from="-1079019252" to="-1079019252"/>
    <trip id="veh162" type="veh_passenger" depart="326.15" departLane="best" departSpeed="max" from="548990922" to="548990922"/>
    <trip id="veh163" type="veh_passenger" depart="328.16" departLane="best" departSpeed="max" from="1079019252" to="1079019252"/>
    <trip id="veh164" type="veh_passenger" depart="330.18" departLane="best" departSpeed="max" from="-1079019252" to="-1079019252"/>
    <trip id="veh168" type="veh_passenger" depart="338.23" departLane="best" departSpeed="max" from="1079019252" to="1079019252"/>
    <trip id="veh173" type="veh_passenger" depart="348.29" departLane="best" departSpeed="max" from="1079019252" to="1079019252"/>
    <trip id="veh178" type="veh_passenger" depart="358.36" departLane="best" departSpeed="max" from="548990922" to="548990922"/>
    <trip id="veh183" type="veh_passenger" depart="368.43" departLane="best" departSpeed="max" from="-1079019252" to="-1079019252"/>
    <trip id="veh189" type="veh_passenger" depart="380.51" departLane="best" departSpeed="max" from="548990922" to="548990922"/>
    <trip id="veh190" type="veh_passenger" depart="382.52" departLane="best" departSpeed="max" from="1079019252" to="1079019252"/>
    <trip id="veh191" type="veh_passenger" depart="384.53" departLane="best" departSpeed="max" from="-1079019252" to="-1079019252"/>
    <trip id="veh200" type="veh_passenger" depart="402.65" departLane="best" from="994004819" to="994004819"/>
    <trip id="veh204" type="veh_passenger" depart="410.71" departLane="best" departSpeed="max" from="548865432" to="548865432"/>
    <trip id="veh205" type="veh_passenger" depart="412.72" departLane="best" departSpeed="max" from="226955127" to="226955127"/>
    <trip id="veh209" type="veh_passenger" depart="420.77" departLane="best" departSpeed="max" from="-1079019252" to="-1079019252"/>
    <trip id="veh210" type="veh_passenger" depart="422.79" departLane="best" departSpeed="max" from="548990922" to="548990922"/>
    <trip id="veh219" type="veh_passenger" depart="440.91" departLane="best" departSpeed="max" from="1079019252" to="1079019252"/>
    <trip id="veh224" type="veh_passenger" depart="450.97" departLane="best" from="-22915139" to="-22915139"/>
    <trip id="veh225" type="veh_passenger" depart="452.98" departLane="best" departSpeed="max" from="1079019252" to="1079019252"/>
    <trip id="veh229" type="veh_passenger" depart="461.04" departLane="best" departSpeed="max" from="1079019252" to="1079019252"/>
    <trip id="veh230" type="veh_passenger" depart="463.05" departLane="best" departSpeed="max" from="-1079019252" to="-1079019252"/>
    <trip id="veh233" type="veh_passenger" depart="469.09" departLane="best" departSpeed="max" from="1079019252" to="1079019252"/>
    <trip id="veh235" type="veh_passenger" depart="473.12" departLane="best" departSpeed="max" from="1079019252" to="1079019252"/>
    <trip id="veh237" type="veh_passenger" depart="477.14" departLane="best" departSpeed="max" from="226955127" to="226955127"/>
    <trip id="veh243" type="veh_passenger" depart="489.22" departLane="best" departSpeed="max" from="1079019252" to="1079019252"/>
    <trip id="veh247" type="veh_passenger" depart="497.28" departLane="best" departSpeed="max" from="-1079019252" to="-1079019252"/>
    <trip id="veh252" type="veh_passenger" depart="507.34" departLane="best" departSpeed="max" from="1079019252" to="1079019252"/>
    <trip id="veh257" type="veh_passenger" depart="517.41" departLane="best" departSpeed="max" from="226955127" to="226955127"/>
    <trip id="veh260" type="veh_passenger" depart="523.45" departLane="best" departSpeed="max" from="1079019252" to="1079019252"/>
    <trip id="veh277" type="veh_passenger" depart="557.67" departLane="best" departSpeed="max" from="548990922" to="548990922"/>
    <trip id="veh278" type="veh_passenger" depart="559.69" departLane="best" departSpeed="max" from="1079019252" to="1079019252"/>
    <trip id="veh281" type="veh_passenger" depart="565.73" departLane="best" from="23018399" to="23018399"/>
    <trip id="veh282" type="veh_passenger" depart="567.74" departLane="best" departSpeed="max" from="1079019252" to="1079019252"/>
    <trip id="veh284" type="veh_passenger" depart="571.77" departLane="best" departSpeed="max" from="226955127" to="226955127"/>
    <trip id="veh285" type="veh_passenger" depart="573.78" departLane="best" departSpeed="max" from="1079019252" to="1079019252"/>
    <trip id="veh286" type="veh_passenger" depart="575.79" departLane="best" from="23018389#1" to="23018389#1"/>
    <trip id="veh287" type="veh_passenger" depart="577.81" departLane="best" departSpeed="max" from="548990922" to="548990922"/>
    <trip id="veh289" type="veh_passenger" depart="581.83" departLane="best" departSpeed="max" from="1079019252" to="1079019252"/>
    <trip id="veh296" type="veh_passenger" depart="595.93" departLane="best" departSpeed="max" from="226955127" to="226955127"/>
    <trip id="veh297" type="veh_passenger" depart="597.94" departLane="best" departSpeed="max" from="1079019252" to="548990922"/>
    <trip id="veh300" type="veh_passenger" depart="603.98" departLane="best" departSpeed="max" from="226955127" to="226955127"/>
    <trip id="veh302" type="veh_passenger" depart="608.01" departLane="best" departSpeed="max" from="1079019252" to="1079019252"/>
    <trip id="veh307" type="veh_passenger" depart="618.07" departLane="best" departSpeed="max" from="226955127" to="226955127"/>
    <trip id="veh311" type="veh_passenger" depart="626.13" departLane="best" departSpeed="max" from="226955127" to="226955127"/>
    <trip id="veh312" type="veh_passenger" depart="628.14" departLane="best" departSpeed="max" from="1079019252" to="1079019252"/>
    <trip id="veh314" type="veh_passenger" depart="632.17" departLane="best" departSpeed="max" from="226955127" to="226955127"/>
    <trip id="veh315" type="veh_passenger" depart="634.18" departLane="best" departSpeed="max" from="1079019252" to="1079019252"/>
    <trip id="veh316" type="veh_passenger" depart="636.19" departLane="best" departSpeed="max" from="548990922" to="548990922"/>
    <trip id="veh317" type="veh_passenger" depart="638.21" departLane="best" departSpeed="max" from="226955127" to="226955127"/>
    <trip id="veh319" type="veh_passenger" depart="642.23" departLane="best" departSpeed="max" from="548990922" to="548990922"/>
    <trip id="veh324" type="veh_passenger" depart="652.30" departLane="best" from="226955132#0" to="226955132#0"/>
    <trip id="veh327" type="veh_passenger" depart="658.34" departLane="best" departSpeed="max" from="1079019252" to="1079019252"/>
    <trip id="veh328" type="veh_passenger" depart="660.35" departLane="best" departSpeed="max" from="548990922" to="548990922"/>
    <trip id="veh330" type="veh_passenger" depart="664.38" departLane="best" departSpeed="max" from="-1079019252" to="-1079019252"/>
    <trip id="veh337" type="veh_passenger" depart="678.47" departLane="best" departSpeed="max" from="226955127" to="226955127"/>
    <trip id="veh344" type="veh_passenger" depart="692.56" departLane="best" departSpeed="max" from="548990922" to="548990922"/>
    <trip id="veh350" type="veh_passenger" depart="704.64" departLane="best" departSpeed="max" from="1079019252" to="1079019252"/>
    <trip id="veh351" type="veh_passenger" depart="706.66" departLane="best" departSpeed="max" from="226955127" to="226955127"/>
    <trip id="veh356" type="veh_passenger" depart="716.72" departLane="best" departSpeed="max" from="1079019252" to="1079019252"/>
    <trip id="veh363" type="veh_passenger" depart="730.82" departLane="best" departSpeed="max" from="1079019252" to="1079019252"/>
    <trip id="veh376" type="veh_passenger" depart="756.99" departLane="best" departSpeed="max" from="1079019252" to="548990922"/>
    <trip id="veh377" type="veh_passenger" depart="759.00" departLane="best" from="23018400" to="23018400"/>
    <trip id="veh380" type="veh_passenger" depart="765.04" departLane="best" departSpeed="max" from="226955127" to="226955127"/>
    <trip id="veh388" type="veh_passenger" depart="781.15" departLane="best" from="23018389#2" to="23018389#2"/>
    <trip id="veh392" type="veh_passenger" depart="789.20" departLane="best" departSpeed="max" from="1079019252" to="1079019252"/>
    <trip id="veh393" type="veh_passenger" depart="791.21" departLane="best" departSpeed="max" from="-1079019252" to="-1079019252"/>
    <trip id="veh395" type="veh_passenger" depart="795.24" departLane="best" departSpeed="max" from="548990922" to="548990922"/>
    <trip id="veh401" type="veh_passenger" depart="807.32" departLane="best" departSpeed="max" from="-1079019252" to="-1079019252"/>
    <trip id="veh409" type="veh_passenger" depart="823.43" departLane="best" departSpeed="max" from="-1079019252" to="-1079019252"/>
    <trip id="veh417" type="veh_passenger" depart="839.53" departLane="best" departSpeed="max" from="1079019252" to="1079019252"/>
    <trip id="veh426" type="veh_passenger" depart="857.65" departLane="best" departSpeed="max" from="1079019252" to="1079019252"/>
    <trip id="veh432" type="veh_passenger" depart="869.73" departLane="best" departSpeed="max" from="226955127" to="226955127"/>
    <trip id="veh437" type="veh_passenger" depart="879.80" departLane="best" departSpeed="max" from="226955127" to="226955127"/>
    <trip id="veh440" type="veh_passenger" depart="885.84" departLane="best" departSpeed="max" from="226955127" to="226955127"/>
    <trip id="veh443" type="veh_passenger" depart="891.88" departLane="best" departSpeed="max" from="-1079019252" to="-1079019252"/>
    <trip id="veh447" type="veh_passenger" depart="899.93" departLane="best" departSpeed="max" from="-1079019252" to="-1079019252"/>
    <trip id="veh449" type="veh_passenger" depart="903.96" departLane="best" departSpeed="max" from="-1079019252" to="-1079019252"/>
    <trip id="veh455" type="veh_passenger" depart="916.04" departLane="best" departSpeed="max" from="1079019252" to="1079019252"/>
    <trip id="veh466" type="veh_passenger" depart="938.18" departLane="best" departSpeed="max" from="-1079019252" to="-1079019252"/>
    <trip id="veh467" type="veh_passenger" depart="940.19" departLane="best" departSpeed="max" from="226955127" to="226955127"/>
    <trip id="veh468" type="veh_passenger" depart="942.21" departLane="best" departSpeed="max" from="-1079019252" to="-1079019252"/>
    <trip id="veh482" type="veh_passenger" depart="970.39" departLane="best" departSpeed="max" from="226955127" to="226955127"/>
    <trip id="veh489" type="veh_passenger" depart="984.49" departLane="best" departSpeed="max" from="226955127" to="226955127"/>
    <trip id="veh495" type="veh_passenger" depart="996.57" departLane="best" departSpeed="max" from="1079019252" to="1079019252"/>
    <trip id="veh497" type="veh_passenger" depart="1000.59" departLane="best" departSpeed="max" from="1079019252" to="1079019252"/>
    <trip id="veh499" type="veh_passenger" depart="1004.62" departLane="best" departSpeed="max" from="23018389#2" to="23018389#2"/>
    <trip id="veh506" type="veh_passenger" depart="1018.71" departLane="best" departSpeed="max" from="548990922" to="548990922"/>
    <trip id="veh510" type="veh_passenger" depart="1026.77" departLane="best" departSpeed="max" from="548990922" to="548990922"/>
    <trip id="veh521" type="veh_passenger" depart="1048.91" departLane="best" departSpeed="max" from="1079019252" to="1079019252"/>
    <trip id="veh527" type="veh_passenger" depart="1060.99" departLane="best" departSpeed="max" from="1079019252" to="1079019252"/>
    <trip id="veh535" type="veh_passenger" depart="1077.10" departLane="best" departSpeed="max" from="1079019252" to="1079019252"/>
    <trip id="veh537" type="veh_passenger" depart="1081.12" departLane="best" from="-1079019252" to="-1079019252"/>
    <trip id="veh540" type="veh_passenger" depart="1087.16" departLane="best" departSpeed="max" from="-1079019252" to="-1079019252"/>
    <trip id="veh543" type="veh_passenger" depart="1093.20" departLane="best" departSpeed="max" from="548990922" to="548990922"/>
    <trip id="veh544" type="veh_passenger" depart="1095.22" departLane="best" departSpeed="max" from="548990922" to="548990922"/>
    <trip id="veh548" type="veh_passenger" depart="1103.27" departLane="best" departSpeed="max" from="1079019252" to="1079019252"/>
    <trip id="veh559" type="veh_passenger" depart="1125.42" departLane="best" departSpeed="max" from="-1079019252" to="-1079019252"/>
    <trip id="veh566" type="veh_passenger" depart="1139.51" departLane="best" departSpeed="max" from="1079019252" to="548990922"/>
    <trip id="veh568" type="veh_passenger" depart="1143.53" departLane="best" departSpeed="max" from="1079019252" to="1079019252"/>
    <trip id="veh583" type="veh_passenger" depart="1173.73" departLane="best" departSpeed="max" from="548990922" to="548990922"/>
    <trip id="veh591" type="veh_passenger" depart="1189.84" departLane="best" departSpeed="max" from="-1079019252" to="-1079019252"/>
    <trip id="veh594" type="veh_passenger" depart="1195.88" departLane="best" departSpeed="max" from="226955127" to="226955127"/>
    <trip id="veh597" type="veh_passenger" depart="1201.92" departLane="best" departSpeed="max" from="226955127" to="226955127"/>
    <trip id="veh603" type="veh_passenger" depart="1214.00" departLane="best" departSpeed="max" from="1079019252" to="1079019252"/>
    <trip id="veh605" type="veh_passenger" depart="1218.03" departLane="best" departSpeed="max" from="1079019252" to="1079019252"/>
    <trip id="veh607" type="veh_passenger" depart="1222.05" departLane="best" departSpeed="max" from="548990922" to="548990922"/>
    <trip id="veh616" type="veh_passenger" depart="1240.17" departLane="best" departSpeed="max" from="226955127" to="226955127"/>
    <trip id="veh622" type="veh_passenger" depart="1252.25" departLane="best" departSpeed="max" from="1079019252" to="548990922"/>
    <trip id="veh624" type="veh_passenger" depart="1256.28" departLane="best" departSpeed="max" from="1079019252" to="1079019252"/>
    <trip id="veh631" type="veh_passenger" depart="1270.37" departLane="best" departSpeed="max" from="226955127" to="226955127"/>
    <trip id="veh633" type="veh_passenger" depart="1274.40" departLane="best" departSpeed="max" from="1079019252" to="1079019252"/>
    <trip id="veh637" type="veh_passenger" depart="1282.45" departLane="best" departSpeed="max" from="226955127" to="226955127"/>
    <trip id="veh642" type="veh_passenger" depart="1292.52" departLane="best" departSpeed="max" from="1079019252" to="1079019252"/>
    <trip id="veh644" type="veh_passenger" depart="1296.54" departLane="best" departSpeed="max" from="1079019252" to="1079019252"/>
    <trip id="veh647" type="veh_passenger" depart="1302.58" departLane="best" departSpeed="max" from="1079019252" to="1079019252"/>
    <trip id="veh657" type="veh_passenger" depart="1322.72" departLane="best" departSpeed="max" from="226955127" to="226955127"/>
    <trip id="veh659" type="veh_passenger" depart="1326.74" departLane="best" departSpeed="max" from="-1079019252" to="-1079019252"/>
    <trip id="veh662" type="veh_passenger" depart="1332.78" departLane="best" departSpeed="max" from="1079019252" to="1079019252"/>
    <trip id="veh664" type="veh_passenger" depart="1336.81" departLane="best" departSpeed="max" from="1079019252" to="1079019252"/>
    <trip id="veh666" type="veh_passenger" depart="1340.83" departLane="best" departSpeed="max" from="226955127" to="226955127"/>
    <trip id="veh667" type="veh_passenger" depart="1342.85" departLane="best" departSpeed="max" from="226955127" to="226955127"/>
    <trip id="veh668" type="veh_passenger" depart="1344.86" departLane="best" departSpeed="max" from="1079019252" to="1079019252"/>
    <trip id="veh675" type="veh_passenger" depart="1358.95" departLane="best" departSpeed="max" from="1079019252" to="1079019252"/>
    <trip id="veh677" type="veh_passenger" depart="1362.98" departLane="best" departSpeed="max" from="1079019252" to="1079019252"/>
    <trip id="veh683" type="veh_passenger" depart="1375.06" departLane="best" departSpeed="max" from="548990922" to="548990922"/>
    <trip id="veh686" type="veh_passenger" depart="1381.10" departLane="best" departSpeed="max" from="-1079019252" to="-1079019252"/>
    <trip id="veh687" type="veh_passenger" depart="1383.11" departLane="best" departSpeed="max" from="1079019252" to="1079019252"/>
    <trip id="veh689" type="veh_passenger" depart="1387.14" departLane="best" departSpeed="max" from="226955127" to="226955127"/>
    <trip id="veh690" type="veh_passenger" depart="1389.15" departLane="best" departSpeed="max" from="226955127" to="226955127"/>
    <trip id="veh693" type="veh_passenger" depart="1395.19" departLane="best" departSpeed="max" from="-1079019252" to="-1079019252"/>
    <trip id="veh696" type="veh_passenger" depart="1401.23" departLane="best" departSpeed="max" from="548990922" to="548990922"/>
    <trip id="veh708" type="veh_passenger" depart="1425.39" departLane="best" departSpeed="max" from="548990922" to="548990922"/>
    <trip id="veh717" type="veh_passenger" depart="1443.51" departLane="best" departSpeed="max" from="1079019252" to="1079019252"/>
    <trip id="veh718" type="veh_passenger" depart="1445.52" departLane="best" departSpeed="max" from="1079019252" to="1079019252"/>
    <trip id="veh722" type="veh_passenger" depart="1453.58" departLane="best" departSpeed="max" from="548865432" to="548865432"/>
    <trip id="veh725" type="veh_passenger" depart="1459.62" departLane="best" departSpeed="max" from="-1079019252" to="-1079019252"/>
    <trip id="veh726" type="veh_passenger" depart="1461.63" departLane="best" departSpeed="max" from="226955127" to="226955127"/>
    <trip id="veh731" type="veh_passenger" depart="1471.70" departLane="best" departSpeed="max" from="226955127" to="226955127"/>
    <trip id="veh742" type="veh_passenger" depart="1493.84" departLane="best" departSpeed="max" from="1079019252" to="1079019252"/>
    <trip id="veh744" type="veh_passenger" depart="1497.87" departLane="best" departSpeed="max" from="1079019252" to="1079019252"/>
    <trip id="veh759" type="veh_passenger" depart="1528.07" departLane="best" departSpeed="max" from="548990922" to="548990922"/>
    <trip id="veh765" type="veh_passenger" depart="1540.15" departLane="best" departSpeed="max" from="1079019252" to="1079019252"/>
    <trip id="veh769" type="veh_passenger" depart="1548.20" departLane="best" departSpeed="max" from="1079019252" to="548990922"/>
    <trip id="veh771" type="veh_passenger" depart="1552.23" departLane="best" departSpeed="max" from="1079019252" to="1079019252"/>
    <trip id="veh779" type="veh_passenger" depart="1568.33" departLane="best" departSpeed="max" from="-1079019252" to="-1079019252"/>
    <trip id="veh784" type="veh_passenger" depart="1578.40" departLane="best" departSpeed="max" from="548990922" to="548990922"/>
    <trip id="veh789" type="veh_passenger" depart="1588.47" departLane="best" departSpeed="max" from="-1079019252" to="-1079019252"/>
    <trip id="veh797" type="veh_passenger" depart="1604.57" departLane="best" departSpeed="max" from="-1079019252" to="-1079019252"/>
    <trip id="veh809" type="veh_passenger" depart="1628.73" departLane="best" departSpeed="max" from="1079019252" to="1079019252"/>
    <trip id="veh810" type="veh_passenger" depart="1630.74" departLane="best" departSpeed="max" from="548990922" to="548990922"/>
    <trip id="veh812" type="veh_passenger" depart="1634.77" departLane="best" departSpeed="max" from="1079019252" to="1079019252"/>
    <trip id="veh815" type="veh_passenger" depart="1640.81" departLane="best" departSpeed="max" from="226955127" to="226955127"/>
    <trip id="veh816" type="veh_passenger" depart="1642.82" departLane="best" departSpeed="max" from="226955127" to="226955127"/>
    <trip id="veh820" type="veh_passenger" depart="1650.88" departLane="best" departSpeed="max" from="548990922" to="548990922"/>
    <trip id="veh822" type="veh_passenger" depart="1654.90" departLane="best" departSpeed="max" from="1079019252" to="1079019252"/>
    <trip id="veh828" type="veh_passenger" depart="1666.98" departLane="best" departSpeed="max" from="226955127" to="226955127"/>
    <trip id="veh832" type="veh_passenger" depart="1675.04" departLane="best" departSpeed="max" from="1079019252" to="1079019252"/>
    <trip id="veh837" type="veh_passenger" depart="1685.10" departLane="best" departSpeed="max" from="226955127" to="226955127"/>
    <trip id="veh839" type="veh_passenger" depart="1689.13" departLane="best" departSpeed="max" from="1079019252" to="1079019252"/>
    <trip id="veh843" type="veh_passenger" depart="1697.18" departLane="best" departSpeed="max" from="1079019252" to="1079019252"/>
    <trip id="veh845" type="veh_passenger" depart="1701.21" departLane="best" departSpeed="max" from="-1079019252" to="-1079019252"/>
    <trip id="veh847" type="veh_passenger" depart="1705.24" departLane="best" from="22915139" to="22915139"/>
    <trip id="veh853" type="veh_passenger" depart="1717.32" departLane="best" departSpeed="max" from="1079019252" to="1079019252"/>
    <trip id="veh868" type="veh_passenger" depart="1747.51" departLane="best" departSpeed="max" from="-1079019252" to="-1079019252"/>
    <trip id="veh870" type="veh_passenger" depart="1751.54" departLane="best" departSpeed="max" from="1079019252" to="1079019252"/>
    <trip id="veh871" type="veh_passenger" depart="1753.55" departLane="best" departSpeed="max" from="226955127" to="226955127"/>
    <trip id="veh874" type="veh_passenger" depart="1759.59" departLane="best" departSpeed="max" from="1079019252" to="1079019252"/>
    <trip id="veh877" type="veh_passenger" depart="1765.63" departLane="best" departSpeed="max" from="226955127" to="226955127"/>
    <trip id="veh886" type="veh_passenger" depart="1783.75" departLane="best" departSpeed="max" from="1079019252" to="1079019252"/>
    <trip id="veh889" type="veh_passenger" depart="1789.79" departLane="best" departSpeed="max" from="-1079019252" to="-1079019252"/>
    <trip id="veh891" type="veh_passenger" depart="1793.82" departLane="best" departSpeed="max" from="1079019252" to="1079019252"/>
    <trip id="veh895" type="veh_passenger" depart="1801.87" departLane="best" from="548865432" to="548865432"/>
    <trip id="veh899" type="veh_passenger" depart="1809.93" departLane="best" departSpeed="max" from="-1079019252" to="-1079019252"/>
    <trip id="veh900" type="veh_passenger" depart="1811.94" departLane="best" from="-22915139" to="-22915139"/>
    <trip id="veh908" type="veh_passenger" depart="1828.04" departLane="best" departSpeed="max" from="226955127" to="226955127"/>
    <trip id="veh920" type="veh_passenger" depart="1852.20" departLane="best" departSpeed="max" from="548990922" to="548990922"/>
    <trip id="veh921" type="veh_passenger" depart="1854.22" departLane="best" departSpeed="max" from="1079019252" to="1079019252"/>
    <trip id="veh925" type="veh_passenger" depart="1862.27" departLane="best" departSpeed="max" from="548990922" to="548990922"/>
    <trip id="veh932" type="veh_passenger" depart="1876.36" departLane="best" departSpeed="max" from="548990922" to="548990922"/>
    <trip id="veh937" type="veh_passenger" depart="1886.43" departLane="best" departSpeed="max" from="548990922" to="548990922"/>
    <trip id="veh941" type="veh_passenger" depart="1894.48" departLane="best" departSpeed="max" from="226955127" to="226955127"/>
    <trip id="veh942" type="veh_passenger" depart="1896.50" departLane="best" departSpeed="max" from="1079019252" to="1079019252"/>
    <trip id="veh944" type="veh_passenger" depart="1900.52" departLane="best" departSpeed="max" from="1079019252" to="1079019252"/>