<?xml version="1.0" encoding="UTF-8"?>

<!-- generated on 2023-03-19 18:18:15 by Eclipse SUMO netedit Version 1.16.0
<configuration xmlns:xsi="http://www.w3.org/2001/XMLSchema-instance" xsi:noNamespaceSchemaLocation="http://sumo.dlr.de/xsd/netconvertConfiguration.xsd">

    <input>
        <sumocfg-file value="/home/eigho/TSP/2A/Cassiop/SUMO_DOCS/simulations_de_base/chicane_test.sumocfg"/>
        <route-files value="/home/eigho/TSP/2A/Cassiop/SUMO_DOCS/simulations_de_base/chicane_test.rou.xml"/>
        <sumo-net-file value="/home/eigho/TSP/2A/Cassiop/SUMO_DOCS/simulations_de_base/chicane_test.net.xml"/>
    </input>

    <output>
        <output-file value="/home/eigho/TSP/2A/Cassiop/SUMO_DOCS/simulations_de_base/chicane_test.net.xml"/>
    </output>

    <processing>
        <offset.disable-normalization value="true"/>
    </processing>

    <junctions>
        <no-turnarounds value="true"/>
    </junctions>

    <netedit>
        <new-network value="false"/>
    </netedit>

</configuration>
-->

<net version="1.16" junctionCornerDetail="5" limitTurnSpeed="5.50" xmlns:xsi="http://www.w3.org/2001/XMLSchema-instance" xsi:noNamespaceSchemaLocation="http://sumo.dlr.de/xsd/net_file.xsd">

    <location netOffset="0.00,0.00" convBoundary="0.00,0.00,200.00,10.00" origBoundary="10000000000.00,10000000000.00,-10000000000.00,-10000000000.00" projParameter="!"/>

    <edge id=":C1_0" function="internal">
        <lane id=":C1_0_0" index="0" speed="4.22" length="1.28" shape="80.00,-1.60 80.37,-1.59 80.63,-1.53 80.86,-1.39 81.13,-1.13"/>
    </edge>
    <edge id=":C2_0" function="internal">
        <lane id=":C2_0_0" index="0" speed="4.15" length="1.22" shape="90.19,7.93 91.33,8.40"/>
    </edge>
    <edge id=":C3_0" function="internal">
        <lane id=":C3_0_0" index="0" speed="4.20" length="1.26" shape="108.67,8.40 108.99,8.37 109.29,8.28 109.56,8.14 109.81,7.93"/>
    </edge>
    <edge id=":C4_0" function="internal">
        <lane id=":C4_0_0" index="0" speed="4.20" length="1.26" shape="118.87,-1.13 119.12,-1.34 119.39,-1.48 119.68,-1.57 120.00,-1.60"/>
    </edge>

    <edge id="E0" from="beg" to="C1" priority="-1">
        <lane id="E0_0" index="0" speed="13.89" length="80.00" shape="0.00,-1.60 80.00,-1.60"/>
    </edge>
    <edge id="E1" from="C1" to="C2" priority="-1">
        <lane id="E1_0" index="0" speed="13.89" length="12.82" shape="81.13,-1.13 90.19,7.93"/>
    </edge>
    <edge id="E2" from="C2" to="C3" priority="-1">
        <lane id="E2_0" index="0" speed="13.89" length="17.35" shape="91.33,8.40 108.67,8.40"/>
    </edge>
    <edge id="E3" from="C3" to="C4" priority="-1">
        <lane id="E3_0" index="0" speed="13.89" length="12.82" shape="109.81,7.93 118.87,-1.13"/>
    </edge>
    <edge id="E4" from="C4" to="end" priority="-1">
        <lane id="E4_0" index="0" speed="13.89" length="80.00" shape="120.00,-1.60 200.00,-1.60"/>
    </edge>

    <junction id="C1" type="priority" x="80.00" y="0.00" incLanes="E0_0" intLanes=":C1_0_0" shape="80.00,0.00 82.26,-2.26 81.59,-2.78 81.23,-2.97 80.84,-3.10 80.43,-3.17 80.00,-3.20">
        <request index="0" response="0" foes="0" cont="0"/>
    </junction>
    <junction id="C2" type="priority" x="90.00" y="10.00" incLanes="E1_0" intLanes=":C2_0_0" shape="91.33,10.00 91.33,6.80 89.06,9.06 89.76,9.69 90.06,9.86 90.39,9.95 90.79,9.99">
        <request index="0" response="0" foes="0" cont="0"/>
    </junction>
    <junction id="C3" type="priority" x="110.00" y="10.00" incLanes="E2_0" intLanes=":C3_0_0" shape="110.94,9.06 108.67,6.80 108.67,10.00 109.52,9.90 109.90,9.77 110.27,9.58 110.61,9.35">
        <request index="0" response="0" foes="0" cont="0"/>
    </junction>
    <junction id="C4" type="priority" x="120.00" y="0.00" incLanes="E3_0" intLanes=":C4_0_0" shape="120.00,0.00 120.00,-3.20 119.16,-3.10 118.77,-2.97 118.41,-2.78 118.06,-2.55 117.74,-2.26">
        <request index="0" response="0" foes="0" cont="0"/>
    </junction>
    <junction id="beg" type="dead_end" x="0.00" y="0.00" incLanes="" intLanes="" shape="0.00,0.00 0.00,-3.20"/>
    <junction id="end" type="dead_end" x="200.00" y="0.00" incLanes="E4_0" intLanes="" shape="200.00,-3.20 200.00,0.00"/>

    <connection from="E0" to="E1" fromLane="0" toLane="0" via=":C1_0_0" dir="l" state="M"/>
    <connection from="E1" to="E2" fromLane="0" toLane="0" via=":C2_0_0" dir="r" state="M"/>
    <connection from="E2" to="E3" fromLane="0" toLane="0" via=":C3_0_0" dir="r" state="M"/>
    <connection from="E3" to="E4" fromLane="0" toLane="0" via=":C4_0_0" dir="l" state="M"/>

    <connection from=":C1_0" to="E1" fromLane="0" toLane="0" dir="l" state="M"/>
    <connection from=":C2_0" to="E2" fromLane="0" toLane="0" dir="r" state="M"/>
    <connection from=":C3_0" to="E3" fromLane="0" toLane="0" dir="r" state="M"/>
    <connection from=":C4_0" to="E4" fromLane="0" toLane="0" dir="l" state="M"/>

</net>
