<?xml version="1.0" encoding="UTF-8"?>

<!-- generated on 2023-03-19 18:16:21 by Eclipse SUMO netedit Version 1.16.0
-->

<routes xmlns:xsi="http://www.w3.org/2001/XMLSchema-instance" xsi:noNamespaceSchemaLocation="http://sumo.dlr.de/xsd/routes_file.xsd">
    <!-- Vehicles, persons and containers (sorted by depart) -->
    <vehicle id="v_0" depart="0.00">
        <route edges="E0 E1 E2 E3 E4"/>
    </vehicle>
</routes>
