<?xml version="1.0" encoding="UTF-8"?>

<!-- generated on 2023-03-19 18:48:18 by Eclipse SUMO netedit Version 1.16.0
<configuration xmlns:xsi="http://www.w3.org/2001/XMLSchema-instance" xsi:noNamespaceSchemaLocation="http://sumo.dlr.de/xsd/netconvertConfiguration.xsd">

    <input>
        <sumo-net-file value="/home/eigho/TSP/2A/Cassiop/SUMO_DOCS/simulations_de_base/roudabout_test.net.xml"/>
    </input>

    <output>
        <output-file value="/home/eigho/TSP/2A/Cassiop/SUMO_DOCS/simulations_de_base/roudabout_test.net.xml"/>
    </output>

    <processing>
        <offset.disable-normalization value="true"/>
    </processing>

    <junctions>
        <no-turnarounds value="true"/>
    </junctions>

    <netedit>
        <new-network value="false"/>
    </netedit>

</configuration>
-->

<net version="1.16" junctionCornerDetail="5" limitTurnSpeed="5.50" xmlns:xsi="http://www.w3.org/2001/XMLSchema-instance" xsi:noNamespaceSchemaLocation="http://sumo.dlr.de/xsd/net_file.xsd">

    <location netOffset="0.00,0.00" convBoundary="0.00,-100.00,200.00,100.00" origBoundary="10000000000.00,10000000000.00,-10000000000.00,-10000000000.00" projParameter="!"/>

    <edge id=":J10_0" function="internal">
        <lane id=":J10_0_0" index="0" speed="7.99" length="6.99" shape="101.01,-12.83 99.67,-13.24 98.11,-13.25 96.31,-12.85 94.28,-12.04"/>
    </edge>
    <edge id=":J10_1" function="internal">
        <lane id=":J10_1_0" index="0" speed="6.89" length="6.73" shape="101.01,-12.83 99.25,-13.90 97.99,-15.09 97.25,-16.40 97.02,-17.82"/>
    </edge>
    <edge id=":J20_0" function="internal">
        <lane id=":J20_0_0" index="0" speed="5.49" length="1.47" shape="90.06,7.36 91.10,8.40"/>
    </edge>
    <edge id=":J21_0" function="internal">
        <lane id=":J21_0_0" index="0" speed="13.89" length="0.86" shape="108.72,6.60 108.94,6.48 109.09,6.38 109.20,6.25 109.34,6.04"/>
    </edge>
    <edge id=":J22_0" function="internal">
        <lane id=":J22_0_0" index="0" speed="13.89" length="1.00" shape="109.87,-8.03 109.73,-8.29 109.60,-8.45 109.44,-8.57 109.18,-8.71"/>
    </edge>
    <edge id=":J23_0" function="internal">
        <lane id=":J23_0_0" index="0" speed="4.28" length="1.19" shape="89.10,-9.60 88.79,-9.44 88.59,-9.29 88.45,-9.09 88.31,-8.77"/>
    </edge>
    <edge id=":J7_0" function="internal">
        <lane id=":J7_0_0" index="0" speed="7.61" length="7.24" shape="86.60,-4.69 85.89,-2.60 85.64,-0.74 85.85,0.87 86.50,2.26"/>
    </edge>
    <edge id=":J8_0" function="internal">
        <lane id=":J8_0_0" index="0" speed="6.20" length="1.80" shape="98.40,14.31 98.58,13.13 98.87,12.59"/>
    </edge>
    <edge id=":J8_2" function="internal">
        <lane id=":J8_2_0" index="0" speed="6.20" length="3.41" shape="98.87,12.59 99.13,12.08 100.05,11.14 101.34,10.34"/>
    </edge>
    <edge id=":J8_1" function="internal">
        <lane id=":J8_1_0" index="0" speed="7.77" length="6.04" shape="95.48,10.18 97.13,10.72 98.65,10.92 100.06,10.79 101.34,10.34"/>
    </edge>
    <edge id=":J9_0" function="internal">
        <lane id=":J9_0_0" index="0" speed="7.53" length="7.57" shape="111.95,1.98 112.58,0.50 112.68,-1.20 112.28,-3.11 111.36,-5.23"/>
    </edge>
    <edge id=":J9_1" function="internal">
        <lane id=":J9_1_0" index="0" speed="7.79" length="7.64" shape="111.95,1.98 113.35,0.11 114.82,-1.23 116.34,-2.02 117.92,-2.28"/>
    </edge>

    <edge id="E0" from="J1" to="J7" priority="-1">
        <lane id="E0_0" index="0" speed="13.89" length="80.72" shape="-0.00,-1.60 80.72,-1.68"/>
    </edge>
    <edge id="E1.13" from="J9" to="J3" priority="-1">
        <lane id="E1.13_0" index="0" speed="13.89" length="82.10" shape="117.92,-2.28 200.01,-1.60"/>
    </edge>
    <edge id="E2" from="J4" to="J8" priority="-1">
        <lane id="E2_0" index="0" speed="13.89" length="85.69" shape="98.40,100.00 98.40,14.31"/>
    </edge>
    <edge id="E3.13" from="J10" to="J6" priority="-1">
        <lane id="E3.13_0" index="0" speed="13.89" length="82.22" shape="97.02,-17.82 98.40,-100.03"/>
    </edge>
    <edge id="E6" from="J7" to="J20" priority="-1" shape="82.92,-0.08 88.75,8.28">
        <lane id="E6_0" index="0" speed="13.89" length="6.23" shape="86.50,2.26 90.06,7.36"/>
    </edge>
    <edge id="E6.11" from="J20" to="J8" priority="-1" shape="89.31,9.40 97.51,12.74 100.00,12.81">
        <lane id="E6.11_0" index="0" speed="13.89" length="4.73" shape="91.10,8.40 95.48,10.18"/>
    </edge>
    <edge id="E7" from="J8" to="J21" priority="-1" shape="100.00,12.81 109.80,7.85">
        <lane id="E7_0" index="0" speed="13.89" length="8.27" shape="101.34,10.34 108.72,6.60"/>
    </edge>
    <edge id="E7.9" from="J21" to="J9" priority="-1">
        <lane id="E7.9_0" index="0" speed="13.89" length="4.82" shape="109.34,6.04 111.95,1.98"/>
    </edge>
    <edge id="E8" from="J9" to="J22" priority="-1">
        <lane id="E8_0" index="0" speed="13.89" length="3.17" shape="111.36,-5.23 109.87,-8.03"/>
    </edge>
    <edge id="E8.9" from="J22" to="J10" priority="-1">
        <lane id="E8.9_0" index="0" speed="13.89" length="9.15" shape="109.18,-8.71 101.01,-12.83"/>
    </edge>
    <edge id="E9" from="J10" to="J23" priority="-1">
        <lane id="E9_0" index="0" speed="13.89" length="5.73" shape="94.28,-12.04 89.10,-9.60"/>
    </edge>
    <edge id="E9.10" from="J23" to="J7" priority="-1">
        <lane id="E9.10_0" index="0" speed="13.89" length="4.42" shape="88.31,-8.77 86.60,-4.69"/>
    </edge>

    <junction id="J1" type="dead_end" x="0.00" y="0.00" incLanes="" intLanes="" shape="-0.00,0.00 -0.00,-3.20"/>
    <junction id="J10" type="priority" x="98.59" y="-15.84" incLanes="E8.9_0" intLanes=":J10_0_0 :J10_1_0" shape="100.29,-11.40 101.73,-14.26 99.99,-15.35 99.38,-15.93 98.95,-16.53 98.70,-17.15 98.62,-17.79 95.42,-17.84 95.19,-15.79 94.94,-14.99 94.59,-14.34 94.14,-13.84 93.60,-13.49 94.96,-10.59 97.15,-11.43 98.08,-11.64 98.92,-11.70 99.65,-11.62">
        <request index="0" response="00" foes="00" cont="0"/>
        <request index="1" response="00" foes="00" cont="0"/>
    </junction>
    <junction id="J20" type="priority" x="89.31" y="9.40" incLanes="E6_0" intLanes=":J20_0_0" shape="90.50,9.88 91.70,6.92 91.54,6.80 91.50,6.73 91.47,6.65 91.44,6.56 91.37,6.45 88.75,8.28 89.26,9.03 89.47,9.28 89.71,9.48 90.03,9.68">
        <request index="0" response="0" foes="0" cont="0"/>
    </junction>
    <junction id="J21" type="priority" x="110.36" y="7.42" incLanes="E7_0" intLanes=":J21_0_0" shape="110.69,6.90 108.00,5.18 109.44,8.03 110.00,7.73 110.18,7.59 110.33,7.43 110.49,7.21">
        <request index="0" response="0" foes="0" cont="0"/>
    </junction>
    <junction id="J22" type="priority" x="110.81" y="-9.68" incLanes="E8_0" intLanes=":J22_0_0" shape="108.46,-7.28 111.29,-8.78 110.92,-9.42 110.75,-9.62 110.54,-9.78 110.27,-9.95 109.90,-10.14">
        <request index="0" response="0" foes="0" cont="0"/>
    </junction>
    <junction id="J23" type="priority" x="87.31" y="-10.52" incLanes="E9_0" intLanes=":J23_0_0" shape="89.78,-8.15 88.42,-11.04 87.65,-10.63 87.41,-10.43 87.21,-10.18 87.03,-9.84 86.83,-9.39">
        <request index="0" response="0" foes="0" cont="0"/>
    </junction>
    <junction id="J3" type="dead_end" x="200.00" y="0.00" incLanes="E1.13_0" intLanes="" shape="200.03,-3.20 200.00,0.00"/>
    <junction id="J4" type="dead_end" x="100.00" y="100.00" incLanes="" intLanes="" shape="100.00,100.00 96.80,100.00"/>
    <junction id="J6" type="dead_end" x="100.00" y="-100.00" incLanes="E3.13_0" intLanes="" shape="96.80,-100.05 100.00,-100.00"/>
    <junction id="J7" type="priority" x="82.92" y="-0.08" incLanes="E9.10_0 E0_0" intLanes=":J7_0_0" shape="85.19,3.17 87.81,1.34 87.28,-0.06 87.25,-0.91 87.37,-1.87 87.64,-2.92 88.07,-4.07 85.12,-5.31 84.25,-4.18 83.59,-3.79 82.78,-3.51 81.82,-3.34 80.71,-3.28 80.72,-0.08 82.19,0.28 82.94,0.73 83.68,1.37 84.43,2.18">
        <request index="0" response="0" foes="0" cont="0"/>
    </junction>
    <junction id="J8" type="priority" x="100.00" y="12.81" incLanes="E2_0 E6.11_0" intLanes=":J8_2_0 :J8_1_0" shape="96.80,14.31 100.00,14.31 100.23,13.36 100.52,12.92 100.92,12.51 101.43,12.13 102.06,11.77 100.62,8.91 99.26,9.27 98.45,9.26 97.56,9.12 96.60,8.87 95.54,8.48 95.41,11.88 96.18,12.41 96.45,12.77 96.65,13.21 96.76,13.73">
        <request index="0" response="10" foes="10" cont="1"/>
        <request index="1" response="00" foes="01" cont="0"/>
    </junction>
    <junction id="J9" type="priority" x="115.57" y="-0.70" incLanes="E7.9_0" intLanes=":J9_0_0 :J9_1_0" shape="117.91,-0.68 117.93,-3.88 115.55,-4.13 114.61,-4.42 113.83,-4.83 113.22,-5.35 112.77,-5.98 109.94,-4.48 110.87,-2.25 111.07,-1.27 111.09,-0.38 110.94,0.41 110.60,1.12 113.30,2.84 114.82,0.88 115.59,0.19 116.36,-0.30 117.13,-0.59">
        <request index="0" response="00" foes="00" cont="0"/>
        <request index="1" response="00" foes="00" cont="0"/>
    </junction>

    <junction id=":J8_2_0" type="internal" x="98.87" y="12.59" incLanes=":J8_0_0 E6.11_0" intLanes=":J8_1_0"/>

    <connection from="E2" to="E7" fromLane="0" toLane="0" via=":J8_0_0" dir="l" state="m"/>
    <connection from="E6" to="E6.11" fromLane="0" toLane="0" via=":J20_0_0" dir="s" state="M"/>
    <connection from="E6.11" to="E7" fromLane="0" toLane="0" via=":J8_1_0" dir="s" state="M"/>
    <connection from="E7" to="E7.9" fromLane="0" toLane="0" via=":J21_0_0" dir="s" state="M"/>
    <connection from="E7.9" to="E8" fromLane="0" toLane="0" via=":J9_0_0" dir="r" state="M"/>
    <connection from="E7.9" to="E1.13" fromLane="0" toLane="0" via=":J9_1_0" dir="l" state="M"/>
    <connection from="E8" to="E8.9" fromLane="0" toLane="0" via=":J22_0_0" dir="s" state="M"/>
    <connection from="E8.9" to="E9" fromLane="0" toLane="0" via=":J10_0_0" dir="r" state="M"/>
    <connection from="E8.9" to="E3.13" fromLane="0" toLane="0" via=":J10_1_0" dir="l" state="M"/>
    <connection from="E9" to="E9.10" fromLane="0" toLane="0" via=":J23_0_0" dir="s" state="M"/>
    <connection from="E9.10" to="E6" fromLane="0" toLane="0" via=":J7_0_0" dir="r" state="M"/>

    <connection from=":J10_0" to="E9" fromLane="0" toLane="0" dir="r" state="M"/>
    <connection from=":J10_1" to="E3.13" fromLane="0" toLane="0" dir="l" state="M"/>
    <connection from=":J20_0" to="E6.11" fromLane="0" toLane="0" dir="s" state="M"/>
    <connection from=":J21_0" to="E7.9" fromLane="0" toLane="0" dir="s" state="M"/>
    <connection from=":J22_0" to="E8.9" fromLane="0" toLane="0" dir="s" state="M"/>
    <connection from=":J23_0" to="E9.10" fromLane="0" toLane="0" dir="s" state="M"/>
    <connection from=":J7_0" to="E6" fromLane="0" toLane="0" dir="r" state="M"/>
    <connection from=":J8_0" to="E7" fromLane="0" toLane="0" via=":J8_2_0" dir="l" state="m"/>
    <connection from=":J8_2" to="E7" fromLane="0" toLane="0" dir="l" state="M"/>
    <connection from=":J8_1" to="E7" fromLane="0" toLane="0" dir="s" state="M"/>
    <connection from=":J9_0" to="E8" fromLane="0" toLane="0" dir="r" state="M"/>
    <connection from=":J9_1" to="E1.13" fromLane="0" toLane="0" dir="l" state="M"/>

</net>
