<?xml version="1.0" encoding="UTF-8"?>

<!-- generated on 2023-03-19 18:00:33 by Eclipse SUMO netedit Version 1.16.0
-->

<routes xmlns:xsi="http://www.w3.org/2001/XMLSchema-instance" xsi:noNamespaceSchemaLocation="http://sumo.dlr.de/xsd/routes_file.xsd">
    <!-- Routes -->
    <route id="r_0" edges="E0 E1">
        <stop lane="E0_0" startPos="85.00" endPos="100.00" duration="60.00" friendlyPos="1"/>
    </route>
    <route id="r_1" edges="E1"/>
    <!-- Vehicles, persons and containers (sorted by depart) -->
    <vehicle id="v_0" depart="0.00" route="r_0"/>
</routes>
