<?xml version="1.0" encoding="UTF-8"?>

<!-- generated on 2023-03-19 18:00:20 by Eclipse SUMO netedit Version 1.16.0
<configuration xmlns:xsi="http://www.w3.org/2001/XMLSchema-instance" xsi:noNamespaceSchemaLocation="http://sumo.dlr.de/xsd/netconvertConfiguration.xsd">

    <input>
        <sumocfg-file value="/home/eigho/TSP/2A/Cassiop/SUMO_DOCS/simulations_de_base/stop_test.sumocfg"/>
        <sumo-net-file value="/home/eigho/TSP/2A/Cassiop/SUMO_DOCS/simulations_de_base/stop_test.net.xml"/>
    </input>

    <output>
        <output-file value="/home/eigho/TSP/2A/Cassiop/SUMO_DOCS/simulations_de_base/stop_test.net.xml"/>
    </output>

    <processing>
        <offset.disable-normalization value="true"/>
    </processing>

    <junctions>
        <no-turnarounds value="true"/>
    </junctions>

    <netedit>
        <new-network value="false"/>
    </netedit>

</configuration>
-->

<net version="1.16" junctionCornerDetail="5" limitTurnSpeed="5.50" xmlns:xsi="http://www.w3.org/2001/XMLSchema-instance" xsi:noNamespaceSchemaLocation="http://sumo.dlr.de/xsd/net_file.xsd">

    <location netOffset="0.00,0.00" convBoundary="0.00,0.00,200.00,0.00" origBoundary="10000000000.00,10000000000.00,-10000000000.00,-10000000000.00" projParameter="!"/>

    <edge id=":stop_0" function="internal">
        <lane id=":stop_0_0" index="0" speed="13.89" length="0.10" shape="100.00,-1.60 100.00,-1.60"/>
    </edge>

    <edge id="E0" from="beg" to="stop" priority="-1">
        <lane id="E0_0" index="0" speed="13.89" length="100.00" shape="0.00,-1.60 100.00,-1.60"/>
    </edge>
    <edge id="E1" from="stop" to="end" priority="-1">
        <lane id="E1_0" index="0" speed="13.89" length="100.00" shape="100.00,-1.60 200.00,-1.60"/>
    </edge>

    <junction id="beg" type="dead_end" x="0.00" y="0.00" incLanes="" intLanes="" shape="0.00,0.00 0.00,-3.20"/>
    <junction id="end" type="dead_end" x="200.00" y="0.00" incLanes="E1_0" intLanes="" shape="200.00,-3.20 200.00,0.00"/>
    <junction id="stop" type="priority" x="100.00" y="0.00" incLanes="E0_0" intLanes=":stop_0_0" shape="100.00,0.00 100.00,-3.20 100.00,0.00">
        <request index="0" response="0" foes="0" cont="0"/>
    </junction>

    <connection from="E0" to="E1" fromLane="0" toLane="0" via=":stop_0_0" dir="s" state="M"/>

    <connection from=":stop_0" to="E1" fromLane="0" toLane="0" dir="s" state="M"/>

</net>
