<?xml version="1.0" encoding="UTF-8"?>

<!-- generated on 2023-03-19 16:32:52 by Eclipse SUMO netedit Version 1.16.0
-->

<routes xmlns:xsi="http://www.w3.org/2001/XMLSchema-instance" xsi:noNamespaceSchemaLocation="http://sumo.dlr.de/xsd/routes_file.xsd">
    <!-- Routes -->
    <route id="r_0" edges="E0 E1"/>
    <route id="r_1" edges="E1"/>
    <!-- Vehicles, persons and containers (sorted by depart) -->
    <vehicle id="v_0" depart="0.00" route="r_0"/>
    <vehicle id="v_1" depart="80.00" route="r_0"/>
    <!--<vehicle id="v_2" depart="112.00">
        <route edges="E0"/>
    </vehicle>-->
    <!--<flow id="f_0" begin="500.00" from="E0" to="E1" end="3600.00" vehsPerHour="1800.00"/>-->
</routes>
